REMARK  1 active torsions:
REMARK  status: ('A' for Active; 'I' for Inactive)
REMARK    1  A    between atoms: C_4  and  N_21 
ROOT
HETATM    1  C           1       0.402   9.958  25.750  0.00  0.00     0.090 A 
HETATM    2  N           1      -0.789  10.126  26.169  0.00  0.00    -0.226 N 
HETATM    3  N           1      -1.666  10.614  25.452  0.00  0.00     0.025 NA
HETATM    4  C           1      -1.329  11.012  24.292  0.00  0.00     0.738 C 
HETATM    5  N           1      -0.155  10.855  23.827  0.00  0.00    -0.059 NA
HETATM    6  C           1       0.742  10.238  24.478  0.00  0.00     0.119 C 
HETATM    7  C           1       1.153   9.536  26.779  0.00  0.00     0.052 A 
HETATM    8  C           1       0.303   9.312  27.783  0.00  0.00     0.051 A 
HETATM    9  C           1      -0.907   9.712  27.369  0.00  0.00     0.136 A 
HETATM   10  C           1       0.680   8.722  28.938  0.00  0.00     0.253 C 
HETATM   11  N           1      -0.300   7.886  29.396  0.00  0.00    -0.357 N 
HETATM   12  O           1       1.837   8.576  29.262  0.00  0.00    -0.268 OA
HETATM   13  C           1       1.979   9.981  23.984  0.00  0.00     0.051 A 
HETATM   14  C           1       2.623  10.837  23.158  0.00  0.00     0.051 A 
HETATM   15  C           1       3.880  10.592  22.753  0.00  0.00     0.048 A 
HETATM   16  C           1       4.497   9.467  23.136  0.00  0.00     0.038 A 
HETATM   17  C           1       3.828   8.573  23.875  0.00  0.00     0.061 A 
HETATM   18  C           1       2.563   8.784  24.291  0.00  0.00     0.084 A 
HETATM   19 Cl           1       6.118   9.148  22.627  0.00  0.00    -0.084 Cl
HETATM   20 Cl           1       1.991  12.377  22.664  0.00  0.00    -0.083 Cl
HETATM   21  C           1       2.276   6.476  25.090  0.00  0.00     0.175 C 
HETATM   22  C           1       2.924   6.288  26.469  0.00  0.00     0.027 C 
HETATM   23  C           1       2.105   5.517  27.533  0.00  0.00     0.002 C 
HETATM   24  C           1       0.585   5.759  27.542  0.00  0.00     0.002 C 
HETATM   25  C           1      -0.125   5.492  28.889  0.00  0.00     0.020 C 
HETATM   26  C           1       0.034   6.579  29.973  0.00  0.00     0.123 C 
HETATM   27  O           1       1.815   7.796  24.918  0.00  0.00    -0.350 OA
HETATM   28  H           1      -1.251   8.041  29.061  0.00  0.00     0.162 HD
ENDROOT
BRANCH   4  29
HETATM   29  N           1      -2.204  11.574  23.563  0.00  0.00    -0.230 N 
HETATM   30  H           1      -1.953  11.908  22.600  0.00  0.00     0.174 HD
HETATM   31  H           1      -3.183  11.712  23.916  0.00  0.00     0.174 HD
ENDBRANCH   4  29
TORSDOF 1
